[General]
# Setting for cmd environment
cmdenv-interactive=true
cmdenv-express-mode = true	# true: detailed information will be wirtten to the standard output
network = P2P_Wireless_Wifi
record-eventlog = false
#output-vector-file = results/P2P_wireless.vec
#repeat = 3
# Set seed for random generation
seed-set = ${0}
#seed-set = ${repetition}

##########################################################
#			Simulation parameters                        #
##########################################################
**.**.coreDebug = false
**.playgroundSizeX = 33km
#**.playgroundSizeX = 200m
**.playgroundSizeY = 29km
#**.playgroundSizeY = 200m
**.playgroundSizeZ = 0m
# Set lamda for poisson formula
**.node[*].appl.lamda = 0.5
# Set simulation time
sim-time-limit = 600s

##########################################################
#			WorldUtility parameters                      #
##########################################################
**.world.useTorus = false
**.world.use2D = true

##########################################################
#       Parameters for the ConnectionManager             #
##########################################################
**.connectionManager.carrierFrequency = 2.412e9Hz  # [Hz]

# max transmission power [mW]
**.connectionManager.pMax = 110.11mW  # [mW]
# signal attenuation threshold [dBm]
**.connectionManager.sat = -100dBm  # [dBm]
# path loss coefficient alpha
**.connectionManager.alpha = 3.0
**.connectionManager.sendDirect = false

##########################################################
#       Parameters for the Host                          #
##########################################################

############# Phy parameters #############################
**.phy.usePropagationDelay = false
**.phy.thermalNoise = -110dBm  # [dBm]
**.phy.useThermalNoise = true
**.phy.analogueModels = xmldoc("config.xml")
**.phy.decider = xmldoc("config.xml")
**.phy.maxTXPower = 110.11mW
################ Application layer parameters ############
**.node[*].applicationType = "MyApplicationLayer"
**.node[*].appl.debug = false
**.node[*].appl.headerLength = 512bit

#**.node[*].appl.burstSize = 3
################ NETW layer parameters ###################
#**.node[*].networkType = "Flood"
**.node[*].netwl.debug = true
**.node[*].netwl.stats = true
**.node[*].netwl.headerLength = 24 bit
################ Mobility parameters #####################
**.node[*].mobility.debug = false
**.node[*].mobility.updateInterval = 1s
**.node[*].mobility.speed = 1mps
**.node[*].mobility.initFromDisplayString = false

##############################################################################
#       Battery consumption parameters (NIC, battery, batteryStats)x
##############################################################################
# by default, just record the primary time series
*.node[*].batteryStats.capacity.vector-recording = true
*.node[*].batteryStats.*.vector-recording = false
*.node[*].batteryStats.detail = true# 	
*.node[*].batteryStats.timeSeries = true

# SAMPLE battery consumption parameters for a low-power wi-fi device

# Marvell 88W8686 low power IEEE 802.11 chipset 
# see e.g. http://imote2-linux.wiki.sourceforge.net/UCAM-WSB100
# here we treat all components as 3V

*.node[*].nic.sleepCurrent =  .85mA     #; mA
*.node[*].nic.idleCurrent =   172mA     #; mA
*.node[*].nic.rxCurrent =     200mA     #; mA
*.node[*].nic.txCurrent =     153mA     #; mA

# some parameters for nic with battery
*.node[*].nic.decodingCurrentDelta = 2mA
*.node[*].nic.rxTxCurrent = 0mA
*.node[*].nic.txRxCurrent = 0mA
*.node[*].nic.setupRxCurrent = 0mA
*.node[*].nic.setupTxCurrent = 0mA

# Marvell 88W8686 spec  gives 14dBm max for CCK  
# leave at 20dBm from original omnetpp.ini; unclear how to translate
# other parameters (e.g. sensitivity)
# sim.node[*].nic.snrEval.transmitterPower = 25 ; mW

# G1 Android-phone battery 
# note that the G1 actually uses a qualcomm chip, but smartphone is a
# plausible low power wi-fi scenario

*.node[*].battery.voltage =   3V       #; V
*.node[*].battery.capacity =  1100mAh    #; mAhr
*.node[*].battery.nominal =   1100mAh    #; mAhr
*.node[*].battery.resolution = 0.5s		# capacity is updated at least every resolution time
# publish to Stats every 5% change and every 1s (subject to resolution)
*.node[*].battery.publishDelta = 0.01
*.node[*].battery.publishTime = 1.0s
# number of modules that will draw energy from the battery
*.node[*].battery.numDevices = 1

# Set node id
**.node[0].appl.node_id = 0
**.node[1].appl.node_id = 1
**.node[2].appl.node_id = 2
**.node[3].appl.node_id = 3
**.node[4].appl.node_id = 4
**.node[5].appl.node_id = 5
**.node[6].appl.node_id = 6
**.node[7].appl.node_id = 7
**.node[8].appl.node_id = 8
**.node[9].appl.node_id = 9
**.node[10].appl.node_id = 10
**.node[11].appl.node_id = 11
**.node[12].appl.node_id = 12
**.node[13].appl.node_id = 13
**.node[14].appl.node_id = 14
**.node[15].appl.node_id = 15
**.node[16].appl.node_id = 16
**.node[17].appl.node_id = 17
**.node[18].appl.node_id = 18
**.node[19].appl.node_id = 19
**.node[20].appl.node_id = 20
**.node[21].appl.node_id = 21
**.node[22].appl.node_id = 22
**.node[23].appl.node_id = 23
**.node[24].appl.node_id = 24
**.node[25].appl.node_id = 25
**.node[26].appl.node_id = 26
**.node[27].appl.node_id = 27
**.node[28].appl.node_id = 28
**.node[29].appl.node_id = 29
**.node[30].appl.node_id = 30
**.node[31].appl.node_id = 31
**.node[32].appl.node_id = 32
**.node[33].appl.node_id = 33
**.node[34].appl.node_id = 34
**.node[35].appl.node_id = 35
**.node[36].appl.node_id = 36
**.node[37].appl.node_id = 37
**.node[38].appl.node_id = 38
**.node[39].appl.node_id = 39
**.node[40].appl.node_id = 40
**.node[41].appl.node_id = 41
**.node[42].appl.node_id = 42
**.node[43].appl.node_id = 43
**.node[44].appl.node_id = 44
**.node[45].appl.node_id = 45
**.node[46].appl.node_id = 46
**.node[47].appl.node_id = 47
**.node[48].appl.node_id = 48
**.node[49].appl.node_id = 49
**.node[50].appl.node_id = 50
**.node[51].appl.node_id = 51
**.node[52].appl.node_id = 52
**.node[53].appl.node_id = 53
**.node[54].appl.node_id = 54
**.node[55].appl.node_id = 55
**.node[56].appl.node_id = 56
**.node[57].appl.node_id = 57
**.node[58].appl.node_id = 58
**.node[59].appl.node_id = 59
**.node[60].appl.node_id = 60
**.node[61].appl.node_id = 61
**.node[62].appl.node_id = 62
**.node[63].appl.node_id = 63
**.node[64].appl.node_id = 64
**.node[65].appl.node_id = 65
**.node[66].appl.node_id = 66
**.node[67].appl.node_id = 67
**.node[68].appl.node_id = 68
**.node[69].appl.node_id = 69
**.node[70].appl.node_id = 70
**.node[71].appl.node_id = 71
**.node[72].appl.node_id = 72
**.node[73].appl.node_id = 73
**.node[74].appl.node_id = 74
**.node[75].appl.node_id = 75
**.node[76].appl.node_id = 76
**.node[77].appl.node_id = 77
**.node[78].appl.node_id = 78
**.node[79].appl.node_id = 79
**.node[80].appl.node_id = 80
**.node[81].appl.node_id = 81
**.node[82].appl.node_id = 82
**.node[83].appl.node_id = 83
**.node[84].appl.node_id = 84
**.node[85].appl.node_id = 85
**.node[86].appl.node_id = 86
**.node[87].appl.node_id = 87
**.node[88].appl.node_id = 88
**.node[89].appl.node_id = 89
**.node[90].appl.node_id = 90
**.node[91].appl.node_id = 91
**.node[92].appl.node_id = 92
**.node[93].appl.node_id = 93
**.node[94].appl.node_id = 94
**.node[95].appl.node_id = 95
**.node[96].appl.node_id = 96
**.node[97].appl.node_id = 97
**.node[98].appl.node_id = 98
**.node[99].appl.node_id = 99
**.node[100].appl.node_id = 100
**.node[101].appl.node_id = 101
**.node[102].appl.node_id = 102
**.node[103].appl.node_id = 103
**.node[104].appl.node_id = 104
**.node[105].appl.node_id = 105
**.node[106].appl.node_id = 106
**.node[107].appl.node_id = 107
**.node[108].appl.node_id = 108
**.node[109].appl.node_id = 109
**.node[110].appl.node_id = 110
**.node[111].appl.node_id = 111
**.node[112].appl.node_id = 112
**.node[113].appl.node_id = 113
**.node[114].appl.node_id = 114
**.node[115].appl.node_id = 115
**.node[116].appl.node_id = 116
**.node[117].appl.node_id = 117
**.node[118].appl.node_id = 118
**.node[119].appl.node_id = 119
**.node[120].appl.node_id = 120
**.node[121].appl.node_id = 121
**.node[122].appl.node_id = 122
**.node[123].appl.node_id = 123
**.node[124].appl.node_id = 124
**.node[125].appl.node_id = 125
**.node[126].appl.node_id = 126
**.node[127].appl.node_id = 127
**.node[128].appl.node_id = 128
**.node[129].appl.node_id = 129
**.node[130].appl.node_id = 130
**.node[131].appl.node_id = 131
**.node[132].appl.node_id = 132
**.node[133].appl.node_id = 133
**.node[134].appl.node_id = 134
**.node[135].appl.node_id = 135
**.node[136].appl.node_id = 136
**.node[137].appl.node_id = 137
**.node[138].appl.node_id = 138
**.node[139].appl.node_id = 139
**.node[140].appl.node_id = 140
**.node[141].appl.node_id = 141
**.node[142].appl.node_id = 142
**.node[143].appl.node_id = 143
**.node[144].appl.node_id = 144
**.node[145].appl.node_id = 145
**.node[146].appl.node_id = 146
**.node[147].appl.node_id = 147
**.node[148].appl.node_id = 148
**.node[149].appl.node_id = 149
**.node[150].appl.node_id = 150
**.node[151].appl.node_id = 151
**.node[152].appl.node_id = 152
**.node[153].appl.node_id = 153
**.node[154].appl.node_id = 154
**.node[155].appl.node_id = 155
**.node[156].appl.node_id = 156
**.node[157].appl.node_id = 157
**.node[158].appl.node_id = 158
**.node[159].appl.node_id = 159
**.node[160].appl.node_id = 160
**.node[161].appl.node_id = 161
**.node[162].appl.node_id = 162
**.node[163].appl.node_id = 163
**.node[164].appl.node_id = 164
**.node[165].appl.node_id = 165
**.node[166].appl.node_id = 166
**.node[167].appl.node_id = 167
**.node[168].appl.node_id = 168
**.node[169].appl.node_id = 169
**.node[170].appl.node_id = 170
**.node[171].appl.node_id = 171
**.node[172].appl.node_id = 172
**.node[173].appl.node_id = 173
**.node[174].appl.node_id = 174
**.node[175].appl.node_id = 175
**.node[176].appl.node_id = 176
**.node[177].appl.node_id = 177
**.node[178].appl.node_id = 178
**.node[179].appl.node_id = 179
**.node[180].appl.node_id = 180
**.node[181].appl.node_id = 181
**.node[182].appl.node_id = 182
**.node[183].appl.node_id = 183
**.node[184].appl.node_id = 184
**.node[185].appl.node_id = 185
**.node[186].appl.node_id = 186
**.node[187].appl.node_id = 187
**.node[188].appl.node_id = 188
**.node[189].appl.node_id = 189
**.node[190].appl.node_id = 190
**.node[191].appl.node_id = 191
**.node[192].appl.node_id = 192
**.node[193].appl.node_id = 193
**.node[194].appl.node_id = 194
**.node[195].appl.node_id = 195
**.node[196].appl.node_id = 196
**.node[197].appl.node_id = 197
**.node[198].appl.node_id = 198
**.node[199].appl.node_id = 199
**.node[200].appl.node_id = 200
**.node[201].appl.node_id = 201
**.node[202].appl.node_id = 202
**.node[203].appl.node_id = 203
**.node[204].appl.node_id = 204
**.node[205].appl.node_id = 205
**.node[206].appl.node_id = 206
**.node[207].appl.node_id = 207
**.node[208].appl.node_id = 208
**.node[209].appl.node_id = 209
**.node[210].appl.node_id = 210
**.node[211].appl.node_id = 211
**.node[212].appl.node_id = 212
**.node[213].appl.node_id = 213
**.node[214].appl.node_id = 214
**.node[215].appl.node_id = 215
**.node[216].appl.node_id = 216
**.node[217].appl.node_id = 217
**.node[218].appl.node_id = 218
**.node[219].appl.node_id = 219
**.node[220].appl.node_id = 220
**.node[221].appl.node_id = 221
**.node[222].appl.node_id = 222
**.node[223].appl.node_id = 223
**.node[224].appl.node_id = 224
**.node[225].appl.node_id = 225
**.node[226].appl.node_id = 226
**.node[227].appl.node_id = 227
**.node[228].appl.node_id = 228
**.node[229].appl.node_id = 229
**.node[230].appl.node_id = 230
**.node[231].appl.node_id = 231
**.node[232].appl.node_id = 232
**.node[233].appl.node_id = 233
**.node[234].appl.node_id = 234
**.node[235].appl.node_id = 235
**.node[236].appl.node_id = 236
**.node[237].appl.node_id = 237
**.node[238].appl.node_id = 238
**.node[239].appl.node_id = 239
**.node[240].appl.node_id = 240
**.node[241].appl.node_id = 241
**.node[242].appl.node_id = 242
**.node[243].appl.node_id = 243
**.node[244].appl.node_id = 244
**.node[245].appl.node_id = 245
**.node[246].appl.node_id = 246
**.node[247].appl.node_id = 247
**.node[248].appl.node_id = 248
**.node[249].appl.node_id = 249
**.node[250].appl.node_id = 250
**.node[251].appl.node_id = 251
**.node[252].appl.node_id = 252
**.node[253].appl.node_id = 253
**.node[254].appl.node_id = 254
**.node[255].appl.node_id = 255
**.node[256].appl.node_id = 256
**.node[257].appl.node_id = 257
**.node[258].appl.node_id = 258
**.node[259].appl.node_id = 259
**.node[260].appl.node_id = 260
**.node[261].appl.node_id = 261
**.node[262].appl.node_id = 262
**.node[263].appl.node_id = 263
**.node[264].appl.node_id = 264
**.node[265].appl.node_id = 265
**.node[266].appl.node_id = 266
**.node[267].appl.node_id = 267
**.node[268].appl.node_id = 268
**.node[269].appl.node_id = 269
**.node[270].appl.node_id = 270
**.node[271].appl.node_id = 271
**.node[272].appl.node_id = 272
**.node[273].appl.node_id = 273
**.node[274].appl.node_id = 274
**.node[275].appl.node_id = 275
**.node[276].appl.node_id = 276
**.node[277].appl.node_id = 277
**.node[278].appl.node_id = 278
**.node[279].appl.node_id = 279
**.node[280].appl.node_id = 280
**.node[281].appl.node_id = 281
**.node[282].appl.node_id = 282
**.node[283].appl.node_id = 283
**.node[284].appl.node_id = 284
**.node[285].appl.node_id = 285
**.node[286].appl.node_id = 286
**.node[287].appl.node_id = 287
**.node[288].appl.node_id = 288
**.node[289].appl.node_id = 289
**.node[290].appl.node_id = 290
**.node[291].appl.node_id = 291
**.node[292].appl.node_id = 292
**.node[293].appl.node_id = 293
**.node[294].appl.node_id = 294
**.node[295].appl.node_id = 295
**.node[296].appl.node_id = 296
**.node[297].appl.node_id = 297
**.node[298].appl.node_id = 298
**.node[299].appl.node_id = 299
**.node[300].appl.node_id = 300
**.node[301].appl.node_id = 301
**.node[302].appl.node_id = 302
**.node[303].appl.node_id = 303
**.node[304].appl.node_id = 304
**.node[305].appl.node_id = 305
**.node[306].appl.node_id = 306
**.node[307].appl.node_id = 307
**.node[308].appl.node_id = 308
**.node[309].appl.node_id = 309
**.node[310].appl.node_id = 310
**.node[311].appl.node_id = 311
**.node[312].appl.node_id = 312
**.node[313].appl.node_id = 313
**.node[314].appl.node_id = 314
**.node[315].appl.node_id = 315
**.node[316].appl.node_id = 316
**.node[317].appl.node_id = 317
**.node[318].appl.node_id = 318
**.node[319].appl.node_id = 319
**.node[320].appl.node_id = 320
**.node[321].appl.node_id = 321
**.node[322].appl.node_id = 322
**.node[323].appl.node_id = 323
**.node[324].appl.node_id = 324
**.node[325].appl.node_id = 325
**.node[326].appl.node_id = 326
**.node[327].appl.node_id = 327
**.node[328].appl.node_id = 328
**.node[329].appl.node_id = 329
**.node[330].appl.node_id = 330
**.node[331].appl.node_id = 331
**.node[332].appl.node_id = 332
**.node[333].appl.node_id = 333
**.node[334].appl.node_id = 334
**.node[335].appl.node_id = 335
**.node[336].appl.node_id = 336
**.node[337].appl.node_id = 337
**.node[338].appl.node_id = 338
**.node[339].appl.node_id = 339
**.node[340].appl.node_id = 340
**.node[341].appl.node_id = 341
**.node[342].appl.node_id = 342
**.node[343].appl.node_id = 343
**.node[344].appl.node_id = 344
**.node[345].appl.node_id = 345
**.node[346].appl.node_id = 346
**.node[347].appl.node_id = 347
**.node[348].appl.node_id = 348
**.node[349].appl.node_id = 349
**.node[350].appl.node_id = 350
**.node[351].appl.node_id = 351
**.node[352].appl.node_id = 352
**.node[353].appl.node_id = 353
**.node[354].appl.node_id = 354
**.node[355].appl.node_id = 355
**.node[356].appl.node_id = 356
**.node[357].appl.node_id = 357
**.node[358].appl.node_id = 358
**.node[359].appl.node_id = 359
**.node[360].appl.node_id = 360
**.node[361].appl.node_id = 361
**.node[362].appl.node_id = 362
**.node[363].appl.node_id = 363
**.node[364].appl.node_id = 364
**.node[365].appl.node_id = 365
**.node[366].appl.node_id = 366
**.node[367].appl.node_id = 367
**.node[368].appl.node_id = 368
**.node[369].appl.node_id = 369
**.node[370].appl.node_id = 370
**.node[371].appl.node_id = 371
**.node[372].appl.node_id = 372
**.node[373].appl.node_id = 373
**.node[374].appl.node_id = 374
**.node[375].appl.node_id = 375
**.node[376].appl.node_id = 376
**.node[377].appl.node_id = 377
**.node[378].appl.node_id = 378
**.node[379].appl.node_id = 379
**.node[380].appl.node_id = 380
**.node[381].appl.node_id = 381
**.node[382].appl.node_id = 382
**.node[383].appl.node_id = 383
**.node[384].appl.node_id = 384
**.node[385].appl.node_id = 385
**.node[386].appl.node_id = 386
**.node[387].appl.node_id = 387
**.node[388].appl.node_id = 388
**.node[389].appl.node_id = 389
**.node[390].appl.node_id = 390
**.node[391].appl.node_id = 391
**.node[392].appl.node_id = 392
**.node[393].appl.node_id = 393
**.node[394].appl.node_id = 394
**.node[395].appl.node_id = 395
**.node[396].appl.node_id = 396
**.node[397].appl.node_id = 397
**.node[398].appl.node_id = 398
**.node[399].appl.node_id = 399
**.node[400].appl.node_id = 400
**.node[401].appl.node_id = 401
**.node[402].appl.node_id = 402
**.node[403].appl.node_id = 403
**.node[404].appl.node_id = 404
**.node[405].appl.node_id = 405
**.node[406].appl.node_id = 406
**.node[407].appl.node_id = 407
**.node[408].appl.node_id = 408
**.node[409].appl.node_id = 409
**.node[410].appl.node_id = 410
**.node[411].appl.node_id = 411
**.node[412].appl.node_id = 412
**.node[413].appl.node_id = 413
**.node[414].appl.node_id = 414
**.node[415].appl.node_id = 415
**.node[416].appl.node_id = 416
**.node[417].appl.node_id = 417
**.node[418].appl.node_id = 418
**.node[419].appl.node_id = 419
**.node[420].appl.node_id = 420
**.node[421].appl.node_id = 421
**.node[422].appl.node_id = 422
**.node[423].appl.node_id = 423
**.node[424].appl.node_id = 424
**.node[425].appl.node_id = 425
**.node[426].appl.node_id = 426
**.node[427].appl.node_id = 427
**.node[428].appl.node_id = 428
**.node[429].appl.node_id = 429
**.node[430].appl.node_id = 430
**.node[431].appl.node_id = 431
**.node[432].appl.node_id = 432
**.node[433].appl.node_id = 433
**.node[434].appl.node_id = 434
**.node[435].appl.node_id = 435
**.node[436].appl.node_id = 436
**.node[437].appl.node_id = 437
**.node[438].appl.node_id = 438
**.node[439].appl.node_id = 439
**.node[440].appl.node_id = 440
**.node[441].appl.node_id = 441
**.node[442].appl.node_id = 442
**.node[443].appl.node_id = 443
**.node[444].appl.node_id = 444
**.node[445].appl.node_id = 445
**.node[446].appl.node_id = 446
**.node[447].appl.node_id = 447
**.node[448].appl.node_id = 448
**.node[449].appl.node_id = 449
**.node[450].appl.node_id = 450
**.node[451].appl.node_id = 451
**.node[452].appl.node_id = 452
**.node[453].appl.node_id = 453
**.node[454].appl.node_id = 454
**.node[455].appl.node_id = 455
**.node[456].appl.node_id = 456
**.node[457].appl.node_id = 457
**.node[458].appl.node_id = 458
**.node[459].appl.node_id = 459
**.node[460].appl.node_id = 460
**.node[461].appl.node_id = 461
**.node[462].appl.node_id = 462
**.node[463].appl.node_id = 463
**.node[464].appl.node_id = 464
**.node[465].appl.node_id = 465
**.node[466].appl.node_id = 466
**.node[467].appl.node_id = 467
**.node[468].appl.node_id = 468
**.node[469].appl.node_id = 469
**.node[470].appl.node_id = 470
**.node[471].appl.node_id = 471
**.node[472].appl.node_id = 472
**.node[473].appl.node_id = 473
**.node[474].appl.node_id = 474
**.node[475].appl.node_id = 475
**.node[476].appl.node_id = 476
**.node[477].appl.node_id = 477
**.node[478].appl.node_id = 478
**.node[479].appl.node_id = 479
**.node[480].appl.node_id = 480
**.node[481].appl.node_id = 481
**.node[482].appl.node_id = 482
**.node[483].appl.node_id = 483
**.node[484].appl.node_id = 484
**.node[485].appl.node_id = 485
**.node[486].appl.node_id = 486
**.node[487].appl.node_id = 487
**.node[488].appl.node_id = 488
**.node[489].appl.node_id = 489
**.node[490].appl.node_id = 490
**.node[491].appl.node_id = 491
**.node[492].appl.node_id = 492
**.node[493].appl.node_id = 493
**.node[494].appl.node_id = 494
**.node[495].appl.node_id = 495
**.node[496].appl.node_id = 496
**.node[497].appl.node_id = 497
**.node[498].appl.node_id = 498
**.node[499].appl.node_id = 499
**.node[500].appl.node_id = 500
**.node[501].appl.node_id = 501
**.node[502].appl.node_id = 502
**.node[503].appl.node_id = 503
**.node[504].appl.node_id = 504
**.node[505].appl.node_id = 505
**.node[506].appl.node_id = 506
**.node[507].appl.node_id = 507
**.node[508].appl.node_id = 508
**.node[509].appl.node_id = 509
**.node[510].appl.node_id = 510
**.node[511].appl.node_id = 511
**.node[512].appl.node_id = 512
**.node[513].appl.node_id = 513
**.node[514].appl.node_id = 514
**.node[515].appl.node_id = 515
**.node[516].appl.node_id = 516
**.node[517].appl.node_id = 517
**.node[518].appl.node_id = 518
**.node[519].appl.node_id = 519
**.node[520].appl.node_id = 520
**.node[521].appl.node_id = 521
**.node[522].appl.node_id = 522
**.node[523].appl.node_id = 523
**.node[524].appl.node_id = 524
**.node[525].appl.node_id = 525
**.node[526].appl.node_id = 526
**.node[527].appl.node_id = 527
**.node[528].appl.node_id = 528
**.node[529].appl.node_id = 529
**.node[530].appl.node_id = 530
**.node[531].appl.node_id = 531
**.node[532].appl.node_id = 532
**.node[533].appl.node_id = 533
**.node[534].appl.node_id = 534
**.node[535].appl.node_id = 535
**.node[536].appl.node_id = 536
**.node[537].appl.node_id = 537
**.node[538].appl.node_id = 538
**.node[539].appl.node_id = 539
**.node[540].appl.node_id = 540
**.node[541].appl.node_id = 541
**.node[542].appl.node_id = 542
**.node[543].appl.node_id = 543
**.node[544].appl.node_id = 544
**.node[545].appl.node_id = 545
**.node[546].appl.node_id = 546
**.node[547].appl.node_id = 547
**.node[548].appl.node_id = 548
**.node[549].appl.node_id = 549
**.node[550].appl.node_id = 550
**.node[551].appl.node_id = 551
**.node[552].appl.node_id = 552
**.node[553].appl.node_id = 553
**.node[554].appl.node_id = 554
**.node[555].appl.node_id = 555
**.node[556].appl.node_id = 556
**.node[557].appl.node_id = 557
**.node[558].appl.node_id = 558
**.node[559].appl.node_id = 559
**.node[560].appl.node_id = 560
**.node[561].appl.node_id = 561
**.node[562].appl.node_id = 562
**.node[563].appl.node_id = 563
**.node[564].appl.node_id = 564
**.node[565].appl.node_id = 565
**.node[566].appl.node_id = 566
**.node[567].appl.node_id = 567
**.node[568].appl.node_id = 568
**.node[569].appl.node_id = 569
**.node[570].appl.node_id = 570
**.node[571].appl.node_id = 571
**.node[572].appl.node_id = 572
**.node[573].appl.node_id = 573
**.node[574].appl.node_id = 574
**.node[575].appl.node_id = 575
**.node[576].appl.node_id = 576
**.node[577].appl.node_id = 577
**.node[578].appl.node_id = 578
**.node[579].appl.node_id = 579
**.node[580].appl.node_id = 580
**.node[581].appl.node_id = 581
**.node[582].appl.node_id = 582
**.node[583].appl.node_id = 583
**.node[584].appl.node_id = 584
**.node[585].appl.node_id = 585
**.node[586].appl.node_id = 586
**.node[587].appl.node_id = 587
**.node[588].appl.node_id = 588
**.node[589].appl.node_id = 589
**.node[590].appl.node_id = 590
**.node[591].appl.node_id = 591
**.node[592].appl.node_id = 592
**.node[593].appl.node_id = 593
**.node[594].appl.node_id = 594
**.node[595].appl.node_id = 595
**.node[596].appl.node_id = 596
**.node[597].appl.node_id = 597
**.node[598].appl.node_id = 598
**.node[599].appl.node_id = 599
**.node[600].appl.node_id = 600
**.node[601].appl.node_id = 601
**.node[602].appl.node_id = 602
**.node[603].appl.node_id = 603
**.node[604].appl.node_id = 604
**.node[605].appl.node_id = 605
**.node[606].appl.node_id = 606
**.node[607].appl.node_id = 607
**.node[608].appl.node_id = 608
**.node[609].appl.node_id = 609
**.node[610].appl.node_id = 610
**.node[611].appl.node_id = 611
**.node[612].appl.node_id = 612
**.node[613].appl.node_id = 613
**.node[614].appl.node_id = 614
**.node[615].appl.node_id = 615
**.node[616].appl.node_id = 616
**.node[617].appl.node_id = 617
**.node[618].appl.node_id = 618
**.node[619].appl.node_id = 619
**.node[620].appl.node_id = 620
**.node[621].appl.node_id = 621
**.node[622].appl.node_id = 622
**.node[623].appl.node_id = 623
**.node[624].appl.node_id = 624
**.node[625].appl.node_id = 625
**.node[626].appl.node_id = 626
**.node[627].appl.node_id = 627
**.node[628].appl.node_id = 628
**.node[629].appl.node_id = 629
**.node[630].appl.node_id = 630
**.node[631].appl.node_id = 631
**.node[632].appl.node_id = 632
**.node[633].appl.node_id = 633
**.node[634].appl.node_id = 634
**.node[635].appl.node_id = 635
**.node[636].appl.node_id = 636
**.node[637].appl.node_id = 637
**.node[638].appl.node_id = 638
**.node[639].appl.node_id = 639
**.node[640].appl.node_id = 640
**.node[641].appl.node_id = 641
**.node[642].appl.node_id = 642
**.node[643].appl.node_id = 643
**.node[644].appl.node_id = 644
**.node[645].appl.node_id = 645
**.node[646].appl.node_id = 646
**.node[647].appl.node_id = 647
**.node[648].appl.node_id = 648
**.node[649].appl.node_id = 649
**.node[650].appl.node_id = 650
**.node[651].appl.node_id = 651
**.node[652].appl.node_id = 652
**.node[653].appl.node_id = 653
**.node[654].appl.node_id = 654
**.node[655].appl.node_id = 655
**.node[656].appl.node_id = 656
**.node[657].appl.node_id = 657
**.node[658].appl.node_id = 658
**.node[659].appl.node_id = 659
**.node[660].appl.node_id = 660
**.node[661].appl.node_id = 661
**.node[662].appl.node_id = 662
**.node[663].appl.node_id = 663
**.node[664].appl.node_id = 664
**.node[665].appl.node_id = 665
**.node[666].appl.node_id = 666
**.node[667].appl.node_id = 667
**.node[668].appl.node_id = 668
**.node[669].appl.node_id = 669
**.node[670].appl.node_id = 670
**.node[671].appl.node_id = 671
**.node[672].appl.node_id = 672
**.node[673].appl.node_id = 673
**.node[674].appl.node_id = 674
**.node[675].appl.node_id = 675
**.node[676].appl.node_id = 676
**.node[677].appl.node_id = 677
**.node[678].appl.node_id = 678
**.node[679].appl.node_id = 679
**.node[680].appl.node_id = 680
**.node[681].appl.node_id = 681
**.node[682].appl.node_id = 682
**.node[683].appl.node_id = 683
**.node[684].appl.node_id = 684
**.node[685].appl.node_id = 685
**.node[686].appl.node_id = 686
**.node[687].appl.node_id = 687
**.node[688].appl.node_id = 688
**.node[689].appl.node_id = 689
**.node[690].appl.node_id = 690
**.node[691].appl.node_id = 691
**.node[692].appl.node_id = 692
**.node[693].appl.node_id = 693
**.node[694].appl.node_id = 694
**.node[695].appl.node_id = 695
**.node[696].appl.node_id = 696
**.node[697].appl.node_id = 697
**.node[698].appl.node_id = 698
**.node[699].appl.node_id = 699
**.node[700].appl.node_id = 700
**.node[701].appl.node_id = 701
**.node[702].appl.node_id = 702
**.node[703].appl.node_id = 703
**.node[704].appl.node_id = 704
**.node[705].appl.node_id = 705
**.node[706].appl.node_id = 706
**.node[707].appl.node_id = 707
**.node[708].appl.node_id = 708
**.node[709].appl.node_id = 709
**.node[710].appl.node_id = 710
**.node[711].appl.node_id = 711
**.node[712].appl.node_id = 712
**.node[713].appl.node_id = 713
**.node[714].appl.node_id = 714
**.node[715].appl.node_id = 715
**.node[716].appl.node_id = 716
**.node[717].appl.node_id = 717
**.node[718].appl.node_id = 718
**.node[719].appl.node_id = 719
**.node[720].appl.node_id = 720
**.node[721].appl.node_id = 721
**.node[722].appl.node_id = 722
**.node[723].appl.node_id = 723
**.node[724].appl.node_id = 724
**.node[725].appl.node_id = 725
**.node[726].appl.node_id = 726
**.node[727].appl.node_id = 727
**.node[728].appl.node_id = 728
**.node[729].appl.node_id = 729
**.node[730].appl.node_id = 730
**.node[731].appl.node_id = 731
**.node[732].appl.node_id = 732
**.node[733].appl.node_id = 733
**.node[734].appl.node_id = 734
**.node[735].appl.node_id = 735
**.node[736].appl.node_id = 736
**.node[737].appl.node_id = 737
**.node[738].appl.node_id = 738
**.node[739].appl.node_id = 739
**.node[740].appl.node_id = 740
**.node[741].appl.node_id = 741
**.node[742].appl.node_id = 742
**.node[743].appl.node_id = 743
**.node[744].appl.node_id = 744
**.node[745].appl.node_id = 745
**.node[746].appl.node_id = 746
**.node[747].appl.node_id = 747
**.node[748].appl.node_id = 748
**.node[749].appl.node_id = 749
**.node[750].appl.node_id = 750
**.node[751].appl.node_id = 751
**.node[752].appl.node_id = 752
**.node[753].appl.node_id = 753
**.node[754].appl.node_id = 754
**.node[755].appl.node_id = 755
**.node[756].appl.node_id = 756
**.node[757].appl.node_id = 757
**.node[758].appl.node_id = 758
**.node[759].appl.node_id = 759
**.node[760].appl.node_id = 760
**.node[761].appl.node_id = 761
**.node[762].appl.node_id = 762
**.node[763].appl.node_id = 763
**.node[764].appl.node_id = 764
**.node[765].appl.node_id = 765
**.node[766].appl.node_id = 766
**.node[767].appl.node_id = 767
**.node[768].appl.node_id = 768
**.node[769].appl.node_id = 769
**.node[770].appl.node_id = 770
**.node[771].appl.node_id = 771
**.node[772].appl.node_id = 772
**.node[773].appl.node_id = 773
**.node[774].appl.node_id = 774
**.node[775].appl.node_id = 775
**.node[776].appl.node_id = 776
**.node[777].appl.node_id = 777
**.node[778].appl.node_id = 778
**.node[779].appl.node_id = 779
**.node[780].appl.node_id = 780
**.node[781].appl.node_id = 781
**.node[782].appl.node_id = 782
**.node[783].appl.node_id = 783
**.node[784].appl.node_id = 784
**.node[785].appl.node_id = 785
**.node[786].appl.node_id = 786
**.node[787].appl.node_id = 787
**.node[788].appl.node_id = 788
**.node[789].appl.node_id = 789
**.node[790].appl.node_id = 790
**.node[791].appl.node_id = 791
**.node[792].appl.node_id = 792
**.node[793].appl.node_id = 793
**.node[794].appl.node_id = 794
**.node[795].appl.node_id = 795
**.node[796].appl.node_id = 796
**.node[797].appl.node_id = 797
**.node[798].appl.node_id = 798
**.node[799].appl.node_id = 799
**.node[800].appl.node_id = 800
**.node[801].appl.node_id = 801
**.node[802].appl.node_id = 802
**.node[803].appl.node_id = 803